tests/data/power_flow/floating-ground-no-error/nrse/wye-zigzag_n/asym_output.json
{
  "version": "1.0",
  "type": "asym_output",
  "is_batch": false,
  "attributes": {},
  "data": {
    "node": [
      {"id": 1, "energized": 1, "u_pu": [0.99999999999992251, 0.99999999999992251, 0.99999999999992251], "u": [5773.5026918958101, 5773.5026918958101, 5773.5026918958101], "u_angle": [6.3296256469776083e-14, -2.0943951023931322, 2.0943951023932588], "p": [3.3332500040417687, 3.3332500039079687, 3.3332500040652255], "q": [33.165418788836249, 33.165418788777309, 33.165418788622794]},
      {"id": 2, "energized": 1, "u_pu": [0.99995000249979771, 0.99995000249979771, 0.99995000249979804], "u": [57.732140311942516, 57.732140311942516, 57.732140311942537], "u_angle": [-0.52359877559823531, -2.6179938779914305, 1.5707963267949605], "p": [9.9772694618205321e-11, -2.7984280583569139e-10, 3.5155304681226521e-10], "q": [-2.7125563021294134e-10, -3.3376216409618216e-11, 2.2459885312535236e-23]}
    ],
    "transformer": [
      {"id": 4, "energized": 1, "loading": 0.00099997500124746237, "p_from": [3.3332500040417687, 3.3332500039079687, 3.3332500040652255], "q_from": [33.165418788836249, 33.165418788777309, 33.165418788622794], "i_from": [0.0057733583615479202, 0.0057733583615354458, 0.0057733583615115405], "s_from": [33.332500041676091, 33.332500041604078, 33.332500041466055], "p_to": [9.9772694618205321e-11, -2.7984280583569139e-10, 3.5155304681226521e-10], "q_to": [-2.7125563021294134e-10, -3.3376216409618216e-11, 2.2459885312535236e-23], "i_to": [5.0062728993692727e-12, 4.8816158368465867e-12, 6.0893818402146193e-12], "s_to": [2.8902284946626215e-10, 2.818261304418278e-10, 3.5155304681226521e-10]}
    ],
    "source": [
      {"id": 3, "energized": 1, "p": [3.3332500040417687, 3.3332500039079664, 3.33325000406523], "q": [33.165418788836249, 33.165418788777309, 33.165418788622802], "i": [0.0057733583615479202, 0.0057733583615354449, 0.0057733583615115405], "s": [33.332500041676091, 33.332500041604078, 33.332500041466069], "pf": [0.099999999996224692, 0.099999999992426564, 0.099999999997558625]}
    ],
    "asym_load": [
      {"id": 21, "energized": 0, "p": [-0, -0, -0], "q": [-0, -0, -0], "i": [0, 0, 0], "s": [0, 0, 0], "pf": [0, 0, 0]}
    ]
  }
}